/*--------------------------------*- C++ -*----------------------------------*\
| =========                 |                                                 |
| \\      /  F ield         | OpenFOAM: The Open Source CFD Toolbox           |
|  \\    /   O peration     | Version:  2.4.0                                 |
|   \\  /    A nd           | Web:      www.OpenFOAM.org                      |
|    \\/     M anipulation  |                                                 |
\*---------------------------------------------------------------------------*/
FoamFile
{
    version     2.0;
    format      ascii;
    class       polyBoundaryMesh;
    location    "constant/polyMesh";
    object      boundary;
}
// * * * * * * * * * * * * * * * * * * * * * * * * * * * * * * * * * * * * * //

4
(
    inlet
    {
        type            patch;
        nFaces          20;
        startFace       20500;
    }
    outlet
    {
        type            patch;
        nFaces          40;
        startFace       20520;
    }
    walls
    {
        type            wall;
        inGroups        1(wall);
        nFaces          540;
        startFace       20560;
    }
    frontAndBack
    {
        type            empty;
        inGroups        1(empty);
        nFaces          20800;
        startFace       21100;
    }
)

// ************************************************************************* //
